2
Lattice="0.0 2.2071087452850002 2.2071087452850002 2.2071087452850002 0.0 2.2071087452850002 2.2071087452850002 2.2071087452850002 0.0" Properties=species:S:1:pos:R:3 a0_exp=4.368 a0_pbe=4.4142174905700005 name=AlN crystalstructure=zincblende pbc="T T T"
Al       0.00000000       0.00000000       0.00000000
N        1.10355437       1.10355437       1.10355437
