2
Lattice="0.0 2.40792967266 2.40792967266 2.40792967266 0.0 2.40792967266 2.40792967266 2.40792967266 0.0" Properties=species:S:1:pos:R:3 a0_exp=4.764 a0_pbe=4.81585934532 name=BAs crystalstructure=zincblende pbc="T T T"
B        0.00000000       0.00000000       0.00000000
As       1.20396484       1.20396484       1.20396484
