2
Lattice="0.0 2.27588204281 2.27588204281 2.27588204281 0.0 2.27588204281 2.27588204281 2.27588204281 0.0" Properties=species:S:1:pos:R:3 a0_exp=4.527 a0_pbe=4.55176408562 name=BP crystalstructure=zincblende pbc="T T T"
B        0.00000000       0.00000000       0.00000000
P        1.13794102       1.13794102       1.13794102
