2
Lattice="0.0 2.098384050745 2.098384050745 2.098384050745 0.0 2.098384050745 2.098384050745 2.098384050745 0.0" Properties=species:S:1:pos:R:3 a0_exp=4.148 a0_pbe=4.19676810149 name=VC crystalstructure=rocksalt pbc="T T T"
V        0.00000000       0.00000000       0.00000000
C        2.09838405       0.00000000       0.00000000
