2
Lattice="0.0 2.3577471505800003 2.3577471505800003 2.3577471505800003 0.0 2.3577471505800003 2.3577471505800003 2.3577471505800003 0.0" Properties=species:S:1:pos:R:3 a0_exp=4.687 a0_pbe=4.715494301160001 name=ZrC crystalstructure=rocksalt pbc="T T T"
Zr       0.00000000       0.00000000       0.00000000
C        2.35774715       0.00000000       0.00000000
